Version 4
SHEET 1 1352 984
WIRE 336 80 208 80
WIRE 432 80 416 80
WIRE 448 80 432 80
WIRE 544 80 528 80
WIRE 624 80 544 80
WIRE 800 80 624 80
WIRE 896 80 896 16
WIRE 800 96 800 80
WIRE 864 96 800 96
WIRE 544 112 544 80
WIRE 1024 112 928 112
WIRE 1056 112 1024 112
WIRE 1152 112 1120 112
WIRE 304 128 304 48
WIRE 864 128 800 128
WIRE 208 144 208 80
WIRE 272 144 208 144
WIRE 432 160 432 80
WIRE 432 160 336 160
WIRE 64 176 -144 176
WIRE 128 176 64 176
WIRE 272 176 128 176
WIRE 544 208 544 176
WIRE 624 208 624 160
WIRE 800 208 800 128
WIRE 912 208 800 208
WIRE 1024 208 1024 112
WIRE 1024 208 992 208
WIRE -144 224 -144 176
WIRE 64 224 64 176
WIRE 128 224 128 176
WIRE 208 224 208 144
WIRE 896 224 896 144
WIRE 800 240 800 208
WIRE 304 256 304 192
WIRE 1152 272 1152 112
WIRE 624 304 624 272
WIRE -144 336 -144 304
WIRE 64 336 64 288
WIRE 128 336 128 304
WIRE 208 336 208 304
WIRE 800 336 800 320
WIRE 800 336 704 336
WIRE 800 352 800 336
WIRE 1152 384 1152 352
WIRE 704 448 704 336
WIRE 800 448 800 416
WIRE 64 496 64 448
WIRE 64 560 64 496
WIRE 64 672 64 640
WIRE 64 672 -64 672
WIRE -64 704 -64 672
WIRE 64 704 64 672
WIRE 64 864 64 784
FLAG 304 256 -12V
FLAG 896 16 -12V
FLAG 304 48 +12V
FLAG 896 224 +12V
FLAG 64 336 0
FLAG 128 336 0
FLAG 208 336 0
FLAG 544 208 0
FLAG 624 304 0
FLAG 800 448 0
FLAG 1152 384 0
FLAG 64 496 +12V
FLAG -64 704 0
FLAG 64 864 -12V
FLAG 64 176 Input
FLAG 1152 112 Output
FLAG -144 336 0
FLAG 704 448 0
SYMBOL cap 48 224 R0
WINDOW 0 -59 34 Left 2
WINDOW 3 -60 64 Left 2
SYMATTR InstName C1
SYMATTR Value 120p
SYMBOL res 112 208 R0
SYMATTR InstName R1
SYMATTR Value 47k
SYMBOL OpAmps\\LT1115 304 96 R0
SYMATTR InstName U1
SYMBOL OpAmps\\LT1115 896 176 M180
SYMATTR InstName U2
SYMBOL res 432 64 R90
WINDOW 0 0 56 VBottom 2
WINDOW 3 32 56 VTop 2
SYMATTR InstName R2
SYMATTR Value 2k
SYMBOL res 224 320 R180
WINDOW 0 -36 84 Left 2
WINDOW 3 9 63 Right 2
SYMATTR InstName R3
SYMATTR Value 100R
SYMBOL res 544 64 R90
WINDOW 0 0 56 VBottom 2
WINDOW 3 32 56 VTop 2
SYMATTR InstName R4
SYMATTR Value 27k
SYMBOL cap 528 112 R0
SYMATTR InstName C2
SYMATTR Value 15n
SYMBOL cap 640 272 R180
WINDOW 0 24 56 Left 2
WINDOW 3 24 8 Left 2
SYMATTR InstName C3
SYMATTR Value 68n
SYMBOL res 608 64 R0
SYMATTR InstName R5
SYMATTR Value 3k3
SYMBOL cap 1120 96 R90
WINDOW 0 0 32 VBottom 2
WINDOW 3 32 32 VTop 2
SYMATTR InstName C4
SYMATTR Value 10µ
SYMBOL res 1008 192 R90
WINDOW 0 0 56 VBottom 2
WINDOW 3 32 56 VTop 2
SYMATTR InstName R6
SYMATTR Value 4k7
SYMBOL res 816 336 R180
WINDOW 0 36 76 Left 2
WINDOW 3 36 40 Left 2
SYMATTR InstName R7
SYMATTR Value 220R
SYMBOL cap 784 352 R0
SYMATTR InstName C5
SYMATTR Value 100µ
SYMBOL res 1136 256 R0
SYMATTR InstName R8
SYMATTR Value 10k
SYMBOL voltage 64 544 R0
WINDOW 123 0 0 Left 0
WINDOW 39 0 0 Left 0
SYMATTR InstName V1
SYMATTR Value 12V
SYMBOL voltage 64 688 R0
WINDOW 123 0 0 Left 0
WINDOW 39 0 0 Left 0
SYMATTR InstName V2
SYMATTR Value 12V
SYMBOL voltage -144 208 R0
WINDOW 123 24 124 Left 2
WINDOW 39 0 0 Left 0
SYMATTR Value2 AC 40m
SYMATTR InstName V3
SYMATTR Value SINE()
TEXT -176 968 Left 2 !.ac oct 1000 10 30000
